data_image0
_chemical_formula_structural       C2O2C7O2H8C2O2C7O2H8C2O2C7O2H8C2O2C7O2H8
_chemical_formula_sum              "C36 O16 H32"
_cell_length_a       12.095
_cell_length_b       6.491
_cell_length_c       11.323
_cell_angle_alpha    90
_cell_angle_beta     111.509
_cell_angle_gamma    90

_space_group_name_H-M_alt    "P 1"
_space_group_IT_number       1

loop_
  _space_group_symop_operation_xyz
  'x, y, z'

loop_
  _atom_site_type_symbol
  _atom_site_label
  _atom_site_symmetry_multiplicity
  _atom_site_fract_x
  _atom_site_fract_y
  _atom_site_fract_z
  _atom_site_occupancy
  C   C1        1.0  0.10180  0.16430  0.62730  1.0000
  C   C2        1.0  0.13060  0.25820  0.75740  1.0000
  O   O1        1.0  0.09310  0.21840  0.83660  1.0000
  O   O2        1.0  0.21020  0.41950  0.76990  1.0000
  C   C3        1.0  0.25100  0.52120  0.88780  1.0000
  C   C4        1.0  0.19970  0.70530  0.89160  1.0000
  C   C5        1.0  0.23690  0.81030  0.00890  1.0000
  C   C6        1.0  0.32950  0.74520  0.11190  1.0000
  C   C7        1.0  0.38260  0.55920  0.10560  1.0000
  C   C8        1.0  0.34740  0.44530  0.99200  1.0000
  C   C9        1.0  0.41000  0.24420  0.99390  1.0000
  O   O3        1.0  0.48950  0.18740  0.09050  1.0000
  O   O4        1.0  0.37680  0.14100  0.88830  1.0000
  H   H1        1.0  0.05230  0.04090  0.61940  1.0000
  H   H2        1.0  0.05870  0.26390  0.56190  1.0000
  H   H3        1.0  0.17560  0.12440  0.61620  1.0000
  H   H4        1.0  0.14080  0.76180  0.81790  1.0000
  H   H5        1.0  0.19530  0.93020  0.01590  1.0000
  H   H6        1.0  0.35750  0.82640  0.18700  1.0000
  H   H7        1.0  0.44390  0.50730  0.17910  1.0000
  H   H8        1.0  0.41690  0.03220  0.89910  1.0000
  C   C10       1.0  0.89820  0.66430  0.87270  1.0000
  C   C11       1.0  0.86940  0.75820  0.74260  1.0000
  O   O5        1.0  0.90690  0.71840  0.66340  1.0000
  O   O6        1.0  0.78980  0.91950  0.73010  1.0000
  C   C12       1.0  0.74900  0.02120  0.61220  1.0000
  C   C13       1.0  0.80030  0.20530  0.60840  1.0000
  C   C14       1.0  0.76310  0.31030  0.49110  1.0000
  C   C15       1.0  0.67050  0.24520  0.38810  1.0000
  C   C16       1.0  0.61740  0.05920  0.39440  1.0000
  C   C17       1.0  0.65260  0.94530  0.50800  1.0000
  C   C18       1.0  0.59000  0.74420  0.50610  1.0000
  O   O7        1.0  0.51050  0.68740  0.40950  1.0000
  O   O8        1.0  0.62320  0.64100  0.61170  1.0000
  H   H9        1.0  0.94770  0.54090  0.88060  1.0000
  H   H10       1.0  0.94130  0.76390  0.93810  1.0000
  H   H11       1.0  0.82440  0.62440  0.88380  1.0000
  H   H12       1.0  0.85920  0.26180  0.68210  1.0000
  H   H13       1.0  0.80470  0.43020  0.48410  1.0000
  H   H14       1.0  0.64250  0.32640  0.31300  1.0000
  H   H15       1.0  0.55610  0.00730  0.32090  1.0000
  H   H16       1.0  0.58310  0.53220  0.60090  1.0000
  C   C19       1.0  0.89820  0.83570  0.37270  1.0000
  C   C20       1.0  0.86940  0.74180  0.24260  1.0000
  O   O9        1.0  0.90690  0.78160  0.16340  1.0000
  O   O10       1.0  0.78980  0.58050  0.23010  1.0000
  C   C21       1.0  0.74900  0.47880  0.11220  1.0000
  C   C22       1.0  0.80030  0.29470  0.10840  1.0000
  C   C23       1.0  0.76310  0.18970  0.99110  1.0000
  C   C24       1.0  0.67050  0.25480  0.88810  1.0000
  C   C25       1.0  0.61740  0.44080  0.89440  1.0000
  C   C26       1.0  0.65260  0.55470  0.00800  1.0000
  C   C27       1.0  0.59000  0.75580  0.00610  1.0000
  O   O11       1.0  0.51050  0.81260  0.90950  1.0000
  O   O12       1.0  0.62320  0.85900  0.11170  1.0000
  H   H17       1.0  0.94770  0.95910  0.38060  1.0000
  H   H18       1.0  0.94130  0.73610  0.43810  1.0000
  H   H19       1.0  0.82440  0.87560  0.38380  1.0000
  H   H20       1.0  0.85920  0.23820  0.18210  1.0000
  H   H21       1.0  0.80470  0.06980  0.98410  1.0000
  H   H22       1.0  0.64250  0.17360  0.81300  1.0000
  H   H23       1.0  0.55610  0.49270  0.82090  1.0000
  H   H24       1.0  0.58310  0.96780  0.10090  1.0000
  C   C28       1.0  0.10180  0.33570  0.12730  1.0000
  C   C29       1.0  0.13060  0.24180  0.25740  1.0000
  O   O13       1.0  0.09310  0.28160  0.33660  1.0000
  O   O14       1.0  0.21020  0.08050  0.26990  1.0000
  C   C30       1.0  0.25100  0.97880  0.38780  1.0000
  C   C31       1.0  0.19970  0.79470  0.39160  1.0000
  C   C32       1.0  0.23690  0.68970  0.50890  1.0000
  C   C33       1.0  0.32950  0.75480  0.61190  1.0000
  C   C34       1.0  0.38260  0.94080  0.60560  1.0000
  C   C35       1.0  0.34740  0.05470  0.49200  1.0000
  C   C36       1.0  0.41000  0.25580  0.49390  1.0000
  O   O15       1.0  0.48950  0.31260  0.59050  1.0000
  O   O16       1.0  0.37680  0.35900  0.38830  1.0000
  H   H25       1.0  0.05230  0.45910  0.11940  1.0000
  H   H26       1.0  0.05870  0.23610  0.06190  1.0000
  H   H27       1.0  0.17560  0.37560  0.11620  1.0000
  H   H28       1.0  0.14080  0.73820  0.31790  1.0000
  H   H29       1.0  0.19530  0.56980  0.51590  1.0000
  H   H30       1.0  0.35750  0.67360  0.68700  1.0000
  H   H31       1.0  0.44390  0.99270  0.67910  1.0000
  H   H32       1.0  0.41690  0.46780  0.39910  1.0000
