data_image0
_chemical_formula_structural       C2O2C7O2H8C2O2C7O2H8C2O2C7O2H8C2O2C7O2H8
_chemical_formula_sum              "C36 O16 H32"
_cell_length_a       11.446
_cell_length_b       6.596
_cell_length_c       11.388
_cell_angle_alpha    90
_cell_angle_beta     95.55
_cell_angle_gamma    90

_space_group_name_H-M_alt    "P 1"
_space_group_IT_number       1

loop_
  _space_group_symop_operation_xyz
  'x, y, z'

loop_
  _atom_site_type_symbol
  _atom_site_label
  _atom_site_symmetry_multiplicity
  _atom_site_fract_x
  _atom_site_fract_y
  _atom_site_fract_z
  _atom_site_occupancy
  C   C1        1.0  0.39700  0.16180  0.82620  1.0000
  C   C2        1.0  0.36530  0.26110  0.93690  1.0000
  O   O1        1.0  0.40310  0.21990  0.03430  1.0000
  O   O2        1.0  0.28530  0.41200  0.91160  1.0000
  C   C3        1.0  0.24630  0.51180  0.00920  1.0000
  C   C4        1.0  0.29930  0.69470  0.04190  1.0000
  C   C5        1.0  0.26080  0.80440  0.13470  1.0000
  C   C6        1.0  0.16980  0.73160  0.19380  1.0000
  C   C7        1.0  0.11670  0.55050  0.16020  1.0000
  C   C8        1.0  0.15310  0.43650  0.06740  1.0000
  C   C9        1.0  0.08980  0.24170  0.03720  1.0000
  O   O3        1.0  0.01060  0.18760  0.09660  1.0000
  O   O4        1.0  0.12030  0.13870  0.94920  1.0000
  H   H1        1.0  0.30970  0.12060  0.76390  1.0000
  H   H2        1.0  0.43090  0.03700  0.83030  1.0000
  H   H3        1.0  0.42990  0.23030  0.78380  1.0000
  H   H4        1.0  0.36130  0.73790  0.00140  1.0000
  H   H5        1.0  0.30020  0.93970  0.16280  1.0000
  H   H6        1.0  0.14400  0.80580  0.25700  1.0000
  H   H7        1.0  0.05550  0.50710  0.19910  1.0000
  H   H8        1.0  0.07130  0.99800  0.91910  1.0000
  C   C10       1.0  0.60300  0.66180  0.67380  1.0000
  C   C11       1.0  0.63470  0.76110  0.56310  1.0000
  O   O5        1.0  0.59690  0.71990  0.46570  1.0000
  O   O6        1.0  0.71470  0.91200  0.58840  1.0000
  C   C12       1.0  0.75370  0.01180  0.49080  1.0000
  C   C13       1.0  0.70070  0.19470  0.45810  1.0000
  C   C14       1.0  0.73920  0.30440  0.36530  1.0000
  C   C15       1.0  0.83020  0.23160  0.30620  1.0000
  C   C16       1.0  0.88330  0.05050  0.33980  1.0000
  C   C17       1.0  0.84690  0.93650  0.43260  1.0000
  C   C18       1.0  0.91020  0.74170  0.46280  1.0000
  O   O7        1.0  0.98940  0.68760  0.40340  1.0000
  O   O8        1.0  0.87970  0.63870  0.55080  1.0000
  H   H9        1.0  0.69030  0.62060  0.73610  1.0000
  H   H10       1.0  0.56910  0.53700  0.66970  1.0000
  H   H11       1.0  0.57010  0.73030  0.71620  1.0000
  H   H12       1.0  0.63870  0.23790  0.49860  1.0000
  H   H13       1.0  0.69980  0.43970  0.33720  1.0000
  H   H14       1.0  0.85600  0.30580  0.24300  1.0000
  H   H15       1.0  0.94450  0.00710  0.30090  1.0000
  H   H16       1.0  0.92870  0.49800  0.58090  1.0000
  C   C19       1.0  0.60300  0.83820  0.17380  1.0000
  C   C20       1.0  0.63470  0.73890  0.06310  1.0000
  O   O9        1.0  0.59690  0.78010  0.96570  1.0000
  O   O10       1.0  0.71470  0.58800  0.08840  1.0000
  C   C21       1.0  0.75370  0.48820  0.99080  1.0000
  C   C22       1.0  0.70070  0.30530  0.95810  1.0000
  C   C23       1.0  0.73920  0.19560  0.86530  1.0000
  C   C24       1.0  0.83020  0.26840  0.80620  1.0000
  C   C25       1.0  0.88330  0.44950  0.83980  1.0000
  C   C26       1.0  0.84690  0.56350  0.93260  1.0000
  C   C27       1.0  0.91020  0.75830  0.96280  1.0000
  O   O11       1.0  0.98940  0.81240  0.90340  1.0000
  O   O12       1.0  0.87970  0.86130  0.05080  1.0000
  H   H17       1.0  0.69030  0.87940  0.23610  1.0000
  H   H18       1.0  0.56910  0.96300  0.16970  1.0000
  H   H19       1.0  0.57010  0.76970  0.21620  1.0000
  H   H20       1.0  0.63870  0.26210  0.99860  1.0000
  H   H21       1.0  0.69980  0.06030  0.83720  1.0000
  H   H22       1.0  0.85600  0.19420  0.74300  1.0000
  H   H23       1.0  0.94450  0.49290  0.80090  1.0000
  H   H24       1.0  0.92870  0.00200  0.08090  1.0000
  C   C28       1.0  0.39700  0.33820  0.32620  1.0000
  C   C29       1.0  0.36530  0.23890  0.43690  1.0000
  O   O13       1.0  0.40310  0.28010  0.53430  1.0000
  O   O14       1.0  0.28530  0.08800  0.41160  1.0000
  C   C30       1.0  0.24630  0.98820  0.50920  1.0000
  C   C31       1.0  0.29930  0.80530  0.54190  1.0000
  C   C32       1.0  0.26080  0.69560  0.63470  1.0000
  C   C33       1.0  0.16980  0.76840  0.69380  1.0000
  C   C34       1.0  0.11670  0.94950  0.66020  1.0000
  C   C35       1.0  0.15310  0.06350  0.56740  1.0000
  C   C36       1.0  0.08980  0.25830  0.53720  1.0000
  O   O15       1.0  0.01060  0.31240  0.59660  1.0000
  O   O16       1.0  0.12030  0.36130  0.44920  1.0000
  H   H25       1.0  0.30970  0.37940  0.26390  1.0000
  H   H26       1.0  0.43090  0.46300  0.33030  1.0000
  H   H27       1.0  0.42990  0.26970  0.28380  1.0000
  H   H28       1.0  0.36130  0.76210  0.50140  1.0000
  H   H29       1.0  0.30020  0.56030  0.66280  1.0000
  H   H30       1.0  0.14400  0.69420  0.75700  1.0000
  H   H31       1.0  0.05550  0.99290  0.69910  1.0000
  H   H32       1.0  0.07130  0.50200  0.41910  1.0000
